
**** 09/20/18 22:22:45 ******* PSpice Lite (March 2016) ******* ID# 10813 ****

 ** Profile: "SCHEMATIC1-IR_test"  [ C:\Users\Sokratis Koseoglou\Documents\Cadence\projects\InternalResistanceCircuit-PSpiceFiles\SCH


 ****     CIRCUIT DESCRIPTION


******************************************************************************




** Creating circuit file "IR_test.cir" 
** WARNING: THIS AUTOMATICALLY GENERATED FILE MAY BE OVERWRITTEN BY SUBSEQUENT SIMULATIONS

*Libraries: 
* Profile Libraries :
* Local Libraries :
* From [PSPICE NETLIST] section of C:\Users\Sokratis Koseoglou\AppData\Roaming\SPB_16.6\cdssetup\OrCAD_PSpice\17.2.0\PSpice.ini file:
.lib "nomd.lib" 

*Analysis directives: 
.TRAN  0 1 0 0.01m 
.OPTIONS ADVCONV
.PROBE64 V(alias(*)) I(alias(*)) W(alias(*)) D(alias(*)) NOISE(alias(*)) 
.INC "..\SCHEMATIC1.net" 



**** INCLUDING SCHEMATIC1.net ****
* source INTERNALRESISTANCECIRCUIT
V_VCC         N00213 0 10Vdc
V_V_BATT         0 0 3.7Vdc
R_Rg         N00217 N00221  8.2 TC=0,0 
R_R_LOAD         0 N00241  150m TC=0,0 
X_M1         N00221 N00241 0 BUZ-11
X_U1A         N03327 N00241 N00213 0 N00217 LM358
V_V1         N00696 0  
+PULSE 0V 5V 0 0 0 1.01m 2.12m
R_R1         N00696 N006650  140 TC=0,0 
C_C1         0 N006650  1m  TC=0,0 
X_U1B         0 N03319 N00213 0 N03327 LM358
R_R2         N006650 N03319  1k TC=0,0 
C_C2         N03319 N03327  1n  TC=0,0 

**** RESUMING IR_test.cir ****
.END

ERROR(ORPSIM-15143): Voltage source and/or inductor loop involving V_V_BATT. You may break the loop by adding a series resistance
